*  Spice_Switch_TFN_AproxBehavior
*****************************************************************************
* (C) Thierry FLAVEN FESYS.FR
*****************************************************************************
** This model is designed as a substitute with simple behavioral dependent source ASRC fontion
** For simulation of other IC and the result from this one shouldn't be considered
*****************
*****************************************************************************
*
*.SUBCKT Spice_BeaviorFct  1 2 3 4
.SUBCKT  Spice_BeaviorFct  A B X G
***
B1 X G V = 1.5 + v(A) / 2 - V(B) / 2; match simple
*B1 X G V = V(A) > V(B) ? 0 : 3; if A>B then 0 else 3

.ENDS Spice_BeaviorFct
